<?xml version="1.0" ?>
<configuration>

	<input>
		<net-file value="ingolstadt21.net.xml"/>
		<route-files value="ingolstadt21.rou.xml"/>
	</input>
	<time>
		<begin value="57600"/>
		<end value="61200"/>
	</time>
   <output>
       <tripinfo-output value="one.xml"/>
       <tripinfo-output.write-unfinished value="true"/>
   </output>
</configuration>
